data/linecode_library/LineCode_Impedances_kft.dss
New Linecode.uglv_240al_xlpe/nyl/pvc_ug_4w_bundled nphases=4  Units=kft
~ Rmatrix=[0.0635805  |0.0150137  0.0635805  |0.015014  0.015014  0.0635812  |0.015014  0.015014  0.0150144  0.0635812  ]
~ Xmatrix=[0.227024  |0.20176  0.227024  |0.195122  0.201759  0.227023  |0.201759  0.195122  0.201759  0.227023  ]
~ Cmatrix=[0. |0. 0. |0. 0. 0. |0. 0. 0. 0.]  ![12.0819  |-5.63977  12.0819  |0.112212  -5.63117  12.0995  |-5.63117  0.112212  -5.62224  12.0995  ]

New Linecode.uglv_185al_xlpe/nyl/pvc_ug_4w_bundled_kronreduced nphases=4  Units=kft
~ Rmatrix=[0.0781865  |0.0150137  0.0781865  |0.0150141  0.0150141  0.0781872  |0.0150141  0.0150141  0.0150144  0.0781872  ]
~ Xmatrix=[0.228995  |0.2034  0.228995  |0.196762  0.2034  0.228995  |0.2034  0.196762  0.203399  0.228995  ]
~ Cmatrix=[0. |0. 0. |0. 0. 0. |0. 0. 0. 0.] ! [11.8688  |-5.50628  11.8688  |0.0429688  -5.49861  11.8844  |-5.49861  0.0429688  -5.49066  11.8844  ]

New Linecode.uglv_185al_xlpe/nyl/pvc_ug_2w_bundled nphases=2  Units=kft
~ Rmatrix=[0.0781872  |0.0150144  0.0781872  ]
~ Xmatrix=[0.228995  |0.203399  0.228995  ]
~ Cmatrix=[0.  |0.  0. ] ! original was [8.66171  |-6.94597  8.66171  ]

New Linecode.ugsc_16al_xlpe/pvc_ug_2w_bundled nphases=2  Units=kft
~ Rmatrix=[0.744154  |0.0150144  0.744154  ]
~ Xmatrix=[0.252757  |0.222656  0.252757  ]
~ Cmatrix=[0. |0. 0.] ![7.1134  |-5.71541  7.1134  ]

New Linecode.uglv_120cu_xlpe/nyl/pvc_ug_4w_bundled nphases=4  Units=kft
~ Rmatrix=[0.0740117  |0.0150139  0.0740117  |0.0150141  0.0150141  0.0740122  |0.0150141  0.0150141  0.0150144  0.0740122  ]
~ Xmatrix=[0.233096  |0.206985  0.233096  |0.200348  0.206985  0.233096  |0.206985  0.200348  0.206985  0.233096  ]
~ Cmatrix=[0. |0. 0. |0. 0. 0. |0. 0. 0. 0.] ! [11.5506  |-5.31262  11.5506  |-0.05814  -5.30658  11.5629  |-5.30658  -0.05814  -5.30038  11.5629  ]

New Linecode.ugsc_16cu_xlpe/nyl/pvc_ug_2w_bundled nphases=2  Units=kft
~ Rmatrix=[0.454302  |0.0150144  0.454302  ]
~ Xmatrix=[0.252757  |0.219522  0.252757  ]
~ Cmatrix=[0. |0. 0.] ! [6.41636  |-4.99925  6.41636  ]

New Linecode.ugsc_25cu_xlpe/nyl/pvc_ug_2w_bundled nphases=2  Units=kft
~ Rmatrix=[0.292051  |0.0150144  0.292051  ]
~ Xmatrix=[0.248484  |0.21683  0.248484  ]
~ Cmatrix=[0. |0. 0.] ! [6.77453  |-5.31299  6.77453  ]

New Linecode.abc4x95_lv_oh_4w_bundled_kronreduced nphases=4  Units=kft
~ Rmatrix=[0.133882  |0.0148861  0.133882  |0.0148863  0.0148863  0.133882  |0.0148863  0.0148863  0.0148865  0.133882  ]
~ Xmatrix=[0.235499  |0.212624  0.235499  |0.205986  0.212623  0.235498  |0.212623  0.205986  0.212623  0.235498  ]
~ Cmatrix=[0. |0. 0. |0. 0. 0. |0. 0. 0. 0.] ! [13.8128  |-6.9345  13.8128  |0.679407  -6.93387  13.814  |-6.93387  0.679407  -6.93323  13.814  ]

New Linecode.tw4x16_lv_oh_4w_bundled nphases=4  Units=kft
~ Rmatrix=[0.723706  |0.0148863  0.723706  |0.0148864  0.0148864  0.723707  |0.0148864  0.0148864  0.0148865  0.723707  ]
~ Xmatrix=[0.254509  |0.227571  0.254509  |0.220934  0.227571  0.254509  |0.227571  0.220934  0.227571  0.254509  ]
~ Cmatrix=[0. |0. 0. |0. 0. 0. |0. 0. 0. 0.] ! [11.0124  |-5.09427  11.0124  |-0.267766  -5.09405  11.0128  |-5.09405  -0.267766  -5.09383  11.0128  ]

New Linecode.abc2x16_lv_oh_2w_bundled_kronreduced nphases=2  Units=kft
~ Rmatrix=[0.723707  |0.0148865  0.723707  ]
~ Xmatrix=[0.252491  |0.226277  0.252491  ]
~ Cmatrix=[0. |0. 0.] ! [8.11423  |-7.04148  8.11423  ]

New Linecode.tw2x16_lv_oh_2w_bundled nphases=2  Units=kft
~ Rmatrix=[0.723707  |0.0148865  0.723707  ]
~ Xmatrix=[0.254509  |0.227571  0.254509  ]
~ Cmatrix=[0. |0. 0.] ! [7.8608  |-6.79966  7.8608  ]